  
       XFOIL         Version 6.99
  
 Calculated polar for: NACA 4412                                       
  
 1 1 Reynolds number fixed          Mach number fixed         
  
 xtrf =   1.000 (top)        1.000 (bottom)  
 Mach =   0.030     Re =     0.121 e 6     Ncrit =   9.000
  
   alpha    CL        CD       CDp       CM     Top_Xtr  Bot_Xtr
  ------ -------- --------- --------- -------- -------- --------
  -4.000  -0.1108   0.02512   0.01652  -0.0888   0.9321   0.1121
   0.000   0.4661   0.01469   0.00807  -0.1082   0.8086   1.0000
   4.000   0.9020   0.01683   0.00891  -0.1026   0.6380   1.0000
   8.000   1.2871   0.02106   0.01353  -0.0894   0.4499   1.0000
  12.000   1.3389   0.04236   0.03384  -0.0418   0.1024   1.0000
  16.000   1.4049   0.08415   0.07751  -0.0256   0.0536   1.0000
  20.000   1.0756   0.25204   0.24743  -0.1153   0.0872   1.0000
