  
       XFOIL         Version 6.99
  
 Calculated polar for: NACA 4413                                       
  
 1 1 Reynolds number fixed          Mach number fixed         
  
 xtrf =   1.000 (top)        1.000 (bottom)  
 Mach =   0.030     Re =     0.121 e 6     Ncrit =   9.000
  
   alpha    CL        CD       CDp       CM     Top_Xtr  Bot_Xtr
  ------ -------- --------- --------- -------- -------- --------
  -4.000  -0.0945   0.02446   0.01579  -0.0918   0.9145   0.1316
   0.000   0.4759   0.01491   0.00829  -0.1088   0.7889   1.0000
   4.000   0.9027   0.01740   0.00940  -0.1022   0.6275   1.0000
   8.000   1.2911   0.02199   0.01425  -0.0903   0.4622   1.0000
  12.000   1.3804   0.03775   0.02972  -0.0439   0.1585   1.0000
  16.000   1.4479   0.07427   0.06654  -0.0246   0.0648   1.0000
  20.000   0.7048   0.21133   0.20702  -0.0699   0.1053   1.0000
