  
       XFOIL         Version 6.99
  
 Calculated polar for: NACA 4414                                       
  
 1 1 Reynolds number fixed          Mach number fixed         
  
 xtrf =   1.000 (top)        1.000 (bottom)  
 Mach =   0.030     Re =     0.121 e 6     Ncrit =   9.000
  
   alpha    CL        CD       CDp       CM     Top_Xtr  Bot_Xtr
  ------ -------- --------- --------- -------- -------- --------
  -4.000  -0.0815   0.02427   0.01557  -0.0939   0.8970   0.1521
   0.000   0.4961   0.01509   0.00844  -0.1111   0.7722   1.0000
   4.000   0.9025   0.01802   0.00995  -0.1017   0.6175   1.0000
   8.000   1.2883   0.02305   0.01523  -0.0900   0.4692   1.0000
  12.000   1.4338   0.03354   0.02596  -0.0472   0.2311   1.0000
  16.000   1.4332   0.07215   0.06422  -0.0254   0.0849   1.0000
