  
       XFOIL         Version 6.99
  
 Calculated polar for: NACA 4415                                       
  
 1 1 Reynolds number fixed          Mach number fixed         
  
 xtrf =   1.000 (top)        1.000 (bottom)  
 Mach =   0.030     Re =     0.121 e 6     Ncrit =   9.000
  
   alpha    CL        CD       CDp       CM     Top_Xtr  Bot_Xtr
  ------ -------- --------- --------- -------- -------- --------
  -4.000  -0.0709   0.02426   0.01550  -0.0953   0.8796   0.1727
   0.000   0.5138   0.01565   0.00902  -0.1129   0.7523   1.0000
   4.000   0.9014   0.01868   0.01059  -0.1011   0.6080   1.0000
   8.000   1.2843   0.02405   0.01612  -0.0895   0.4733   1.0000
  12.000   1.4697   0.03191   0.02441  -0.0503   0.2825   1.0000
  16.000   1.4245   0.07149   0.06384  -0.0264   0.1128   1.0000
  20.000   1.0492   0.21991   0.21489  -0.0927   0.0876   1.0000
