  
       XFOIL         Version 6.99
  
 Calculated polar for: NACA 4416                                       
  
 1 1 Reynolds number fixed          Mach number fixed         
  
 xtrf =   1.000 (top)        1.000 (bottom)  
 Mach =   0.030     Re =     0.121 e 6     Ncrit =   9.000
  
   alpha    CL        CD       CDp       CM     Top_Xtr  Bot_Xtr
  ------ -------- --------- --------- -------- -------- --------
   0.000   0.4759   0.01649   0.00990  -0.1037   0.7342   0.9703
   4.000   0.8996   0.01941   0.01133  -0.1005   0.5990   1.0000
   8.000   1.2766   0.02504   0.01702  -0.0883   0.4750   1.0000
  12.000   1.4908   0.03178   0.02419  -0.0528   0.3146   1.0000
  16.000   1.4497   0.06733   0.05969  -0.0254   0.1460   1.0000
  20.000   1.4229   0.11944   0.11307  -0.0308   0.0836   1.0000
