  
       XFOIL         Version 6.99
  
 Calculated polar for: NACA 4511                                       
  
 1 1 Reynolds number fixed          Mach number fixed         
  
 xtrf =   1.000 (top)        1.000 (bottom)  
 Mach =   0.030     Re =     0.121 e 6     Ncrit =   9.000
  
   alpha    CL        CD       CDp       CM     Top_Xtr  Bot_Xtr
  ------ -------- --------- --------- -------- -------- --------
  -4.000  -0.1641   0.02508   0.01653  -0.0897   0.9669   0.1107
   0.000   0.3947   0.01945   0.01298  -0.1125   0.8718   1.0000
   4.000   0.9194   0.01716   0.01026  -0.1201   0.7437   1.0000
   8.000   1.2517   0.02056   0.01296  -0.0923   0.3147   1.0000
  12.000   1.4200   0.04896   0.04033  -0.0556   0.0564   1.0000
  16.000   1.0588   0.16921   0.16486  -0.0821   0.0656   1.0000
  20.000   1.0938   0.25893   0.25447  -0.1363   0.0663   1.0000
