  
       XFOIL         Version 6.99
  
 Calculated polar for: NACA 4512                                       
  
 1 1 Reynolds number fixed          Mach number fixed         
  
 xtrf =   1.000 (top)        1.000 (bottom)  
 Mach =   0.030     Re =     0.121 e 6     Ncrit =   9.000
  
   alpha    CL        CD       CDp       CM     Top_Xtr  Bot_Xtr
  ------ -------- --------- --------- -------- -------- --------
  -4.000  -0.1513   0.02499   0.01630  -0.0927   0.9504   0.1342
   0.000   0.3953   0.01986   0.01351  -0.1116   0.8542   1.0000
   4.000   0.9133   0.01766   0.01066  -0.1182   0.7263   1.0000
   8.000   1.2755   0.01997   0.01270  -0.0962   0.4058   1.0000
  12.000   1.3681   0.04441   0.03548  -0.0507   0.0768   1.0000
  16.000   1.3469   0.09712   0.09138  -0.0346   0.0528   1.0000
  20.000   1.0736   0.25472   0.25014  -0.1324   0.0768   1.0000
