  
       XFOIL         Version 6.99
  
 Calculated polar for: NACA 4513                                       
  
 1 1 Reynolds number fixed          Mach number fixed         
  
 xtrf =   1.000 (top)        1.000 (bottom)  
 Mach =   0.030     Re =     0.121 e 6     Ncrit =   9.000
  
   alpha    CL        CD       CDp       CM     Top_Xtr  Bot_Xtr
  ------ -------- --------- --------- -------- -------- --------
  -4.000  -0.1429   0.02533   0.01669  -0.0948   0.9334   0.1585
   4.000   0.9176   0.01780   0.01065  -0.1179   0.7136   1.0000
   8.000   1.2858   0.02024   0.01289  -0.0981   0.4436   1.0000
  12.000   1.3505   0.04234   0.03346  -0.0498   0.1079   1.0000
  16.000   1.4346   0.08142   0.07461  -0.0310   0.0597   1.0000
  20.000   0.7252   0.21451   0.21033  -0.0770   0.0956   1.0000
