  
       XFOIL         Version 6.99
  
 Calculated polar for: NACA 4514                                       
  
 1 1 Reynolds number fixed          Mach number fixed         
  
 xtrf =   1.000 (top)        1.000 (bottom)  
 Mach =   0.030     Re =     0.121 e 6     Ncrit =   9.000
  
   alpha    CL        CD       CDp       CM     Top_Xtr  Bot_Xtr
  ------ -------- --------- --------- -------- -------- --------
  -4.000  -0.1385   0.02581   0.01717  -0.0959   0.9163   0.1827
   0.000   0.3988   0.02052   0.01401  -0.1100   0.8263   0.7879
   4.000   0.9069   0.01849   0.01130  -0.1154   0.6971   1.0000
   8.000   1.2917   0.02076   0.01324  -0.0992   0.4640   1.0000
  12.000   1.3643   0.03975   0.03124  -0.0507   0.1509   1.0000
  16.000   1.4784   0.07235   0.06457  -0.0307   0.0713   1.0000
  20.000   0.7134   0.21114   0.20685  -0.0727   0.1060   1.0000
